155812439
  -OEChem-08052412142D

 61 64  0     0  0  0  0  0  0999 V2000
    8.7788    3.3512    0.0000 Cl  0  0  0  0  0  0  0  0  0  0  0  0
    4.4487    5.8512    0.0000 Cl  0  0  0  0  0  0  0  0  0  0  0  0
    5.3147   -2.6488    0.0000 O   0  0  0  0  0  0  0  0  0  0  0  0
    3.5827   -4.6488    0.0000 N   0  0  0  0  0  0  0  0  0  0  0  0
    2.6691   -4.2420    0.0000 C   0  0  0  0  0  0  0  0  0  0  0  0
    3.4782   -5.6433    0.0000 C   0  0  0  0  0  0  0  0  0  0  0  0
    2.0000   -4.9852    0.0000 C   0  0  0  0  0  0  0  0  0  0  0  0
    2.5000   -5.8512    0.0000 C   0  0  0  0  0  0  0  0  0  0  0  0
    4.4487   -4.1488    0.0000 C   0  0  0  0  0  0  0  0  0  0  0  0
    4.4487   -3.1488    0.0000 C   0  0  0  0  0  0  0  0  0  0  0  0
    5.3147   -1.6488    0.0000 C   0  0  0  0  0  0  0  0  0  0  0  0
    5.3147    1.3512    0.0000 C   0  0  0  0  0  0  0  0  0  0  0  0
    5.3147    0.3512    0.0000 C   0  0  0  0  0  0  0  0  0  0  0  0
    4.4487    1.8512    0.0000 C   0  0  0  0  0  0  0  0  0  0  0  0
    4.4487   -1.1488    0.0000 C   0  0  0  0  0  0  0  0  0  0  0  0
    6.1808   -1.1488    0.0000 C   0  0  0  0  0  0  0  0  0  0  0  0
    3.5827    1.3512    0.0000 C   0  0  0  0  0  0  0  0  0  0  0  0
    4.4487   -0.1488    0.0000 C   0  0  0  0  0  0  0  0  0  0  0  0
    6.1808   -0.1488    0.0000 C   0  0  0  0  0  0  0  0  0  0  0  0
    6.1808    1.8512    0.0000 C   0  0  0  0  0  0  0  0  0  0  0  0
    4.4487    2.8512    0.0000 C   0  0  0  0  0  0  0  0  0  0  0  0
    2.7166    1.8512    0.0000 C   0  0  0  0  0  0  0  0  0  0  0  0
    6.1808    2.8512    0.0000 C   0  0  0  0  0  0  0  0  0  0  0  0
    7.0468    1.3512    0.0000 C   0  0  0  0  0  0  0  0  0  0  0  0
    3.5827    3.3512    0.0000 C   0  0  0  0  0  0  0  0  0  0  0  0
    5.3147    3.3512    0.0000 C   0  0  0  0  0  0  0  0  0  0  0  0
    7.0468    3.3512    0.0000 C   0  0  0  0  0  0  0  0  0  0  0  0
    7.9128    1.8512    0.0000 C   0  0  0  0  0  0  0  0  0  0  0  0
    3.5827    4.3512    0.0000 C   0  0  0  0  0  0  0  0  0  0  0  0
    5.3147    4.3512    0.0000 C   0  0  0  0  0  0  0  0  0  0  0  0
    7.9128    2.8512    0.0000 C   0  0  0  0  0  0  0  0  0  0  0  0
    4.4487    4.8512    0.0000 C   0  0  0  0  0  0  0  0  0  0  0  0
    2.9791   -3.7051    0.0000 H   0  0  0  0  0  0  0  0  0  0  0  0
    2.1675   -3.8776    0.0000 H   0  0  0  0  0  0  0  0  0  0  0  0
    3.5430   -6.2599    0.0000 H   0  0  0  0  0  0  0  0  0  0  0  0
    4.0982   -5.6433    0.0000 H   0  0  0  0  0  0  0  0  0  0  0  0
    1.5851   -4.5244    0.0000 H   0  0  0  0  0  0  0  0  0  0  0  0
    1.4984   -5.3496    0.0000 H   0  0  0  0  0  0  0  0  0  0  0  0
    1.9336   -6.1034    0.0000 H   0  0  0  0  0  0  0  0  0  0  0  0
    2.6916   -6.4409    0.0000 H   0  0  0  0  0  0  0  0  0  0  0  0
    4.6608   -4.7314    0.0000 H   0  0  0  0  0  0  0  0  0  0  0  0
    5.0593   -4.0411    0.0000 H   0  0  0  0  0  0  0  0  0  0  0  0
    4.2366   -2.5662    0.0000 H   0  0  0  0  0  0  0  0  0  0  0  0
    3.8381   -3.2564    0.0000 H   0  0  0  0  0  0  0  0  0  0  0  0
    3.9118   -1.4588    0.0000 H   0  0  0  0  0  0  0  0  0  0  0  0
    6.7177   -1.4588    0.0000 H   0  0  0  0  0  0  0  0  0  0  0  0
    3.1841    0.8763    0.0000 H   0  0  0  0  0  0  0  0  0  0  0  0
    3.9812    0.8763    0.0000 H   0  0  0  0  0  0  0  0  0  0  0  0
    3.9118    0.1612    0.0000 H   0  0  0  0  0  0  0  0  0  0  0  0
    6.7177    0.1612    0.0000 H   0  0  0  0  0  0  0  0  0  0  0  0
    3.0266    2.3882    0.0000 H   0  0  0  0  0  0  0  0  0  0  0  0
    2.1797    2.1612    0.0000 H   0  0  0  0  0  0  0  0  0  0  0  0
    2.4066    1.3143    0.0000 H   0  0  0  0  0  0  0  0  0  0  0  0
    5.6438    3.1612    0.0000 H   0  0  0  0  0  0  0  0  0  0  0  0
    7.0468    0.7312    0.0000 H   0  0  0  0  0  0  0  0  0  0  0  0
    3.0457    3.0412    0.0000 H   0  0  0  0  0  0  0  0  0  0  0  0
    5.8517    3.0412    0.0000 H   0  0  0  0  0  0  0  0  0  0  0  0
    7.0468    3.9712    0.0000 H   0  0  0  0  0  0  0  0  0  0  0  0
    8.4497    1.5412    0.0000 H   0  0  0  0  0  0  0  0  0  0  0  0
    3.0457    4.6612    0.0000 H   0  0  0  0  0  0  0  0  0  0  0  0
    5.8517    4.6612    0.0000 H   0  0  0  0  0  0  0  0  0  0  0  0
  1 31  1  0  0  0  0
  2 32  1  0  0  0  0
  3 10  1  0  0  0  0
  3 11  1  0  0  0  0
  4  5  1  0  0  0  0
  4  6  1  0  0  0  0
  4  9  1  0  0  0  0
  5  7  1  0  0  0  0
  5 33  1  0  0  0  0
  5 34  1  0  0  0  0
  6  8  1  0  0  0  0
  6 35  1  0  0  0  0
  6 36  1  0  0  0  0
  7  8  1  0  0  0  0
  7 37  1  0  0  0  0
  7 38  1  0  0  0  0
  8 39  1  0  0  0  0
  8 40  1  0  0  0  0
  9 10  1  0  0  0  0
  9 41  1  0  0  0  0
  9 42  1  0  0  0  0
 10 43  1  0  0  0  0
 10 44  1  0  0  0  0
 11 15  2  0  0  0  0
 11 16  1  0  0  0  0
 12 13  1  0  0  0  0
 12 14  2  0  0  0  0
 12 20  1  0  0  0  0
 13 18  2  0  0  0  0
 13 19  1  0  0  0  0
 14 17  1  0  0  0  0
 14 21  1  0  0  0  0
 15 18  1  0  0  0  0
 15 45  1  0  0  0  0
 16 19  2  0  0  0  0
 16 46  1  0  0  0  0
 17 22  1  0  0  0  0
 17 47  1  0  0  0  0
 17 48  1  0  0  0  0
 18 49  1  0  0  0  0
 19 50  1  0  0  0  0
 20 23  2  0  0  0  0
 20 24  1  0  0  0  0
 21 25  2  0  0  0  0
 21 26  1  0  0  0  0
 22 51  1  0  0  0  0
 22 52  1  0  0  0  0
 22 53  1  0  0  0  0
 23 27  1  0  0  0  0
 23 54  1  0  0  0  0
 24 28  2  0  0  0  0
 24 55  1  0  0  0  0
 25 29  1  0  0  0  0
 25 56  1  0  0  0  0
 26 30  2  0  0  0  0
 26 57  1  0  0  0  0
 27 31  2  0  0  0  0
 27 58  1  0  0  0  0
 28 31  1  0  0  0  0
 28 59  1  0  0  0  0
 29 32  2  0  0  0  0
 29 60  1  0  0  0  0
 30 32  1  0  0  0  0
 30 61  1  0  0  0  0
M  END
> <PUBCHEM_COMPOUND_CID>
155812439

> <PUBCHEM_COMPOUND_CANONICALIZED>
1

> <PUBCHEM_CACTVS_COMPLEXITY>
578

> <PUBCHEM_CACTVS_HBOND_ACCEPTOR>
2

> <PUBCHEM_CACTVS_HBOND_DONOR>
0

> <PUBCHEM_CACTVS_ROTATABLE_BOND>
8

> <PUBCHEM_CACTVS_SUBSKEYS>
AAADceB6IAAGAAAAAAAAAAAAAAAAAWAAAAAwYMAAAAAAAAABUAAAHgIAAAAADAbhmCYyBoMABACAAiBCAAACCAAgJQAIiAAOCogOJiKFsxqHOCCkwBGYqAeAwOAOJAAAAAAAAABIAAAAAAAAAAAAAAAAAA==

> <PUBCHEM_IUPAC_OPENEYE_NAME>
1-[2-[4-[(Z)-1,2-bis(4-chlorophenyl)but-1-enyl]phenoxy]ethyl]pyrrolidine

> <PUBCHEM_IUPAC_CAS_NAME>
1-[2-[4-[(Z)-1,2-bis(4-chlorophenyl)but-1-enyl]phenoxy]ethyl]pyrrolidine

> <PUBCHEM_IUPAC_NAME_MARKUP>
1-[2-[4-[(<I>Z</I>)-1,2-bis(4-chlorophenyl)but-1-enyl]phenoxy]ethyl]pyrrolidine

> <PUBCHEM_IUPAC_NAME>
1-[2-[4-[(Z)-1,2-bis(4-chlorophenyl)but-1-enyl]phenoxy]ethyl]pyrrolidine

> <PUBCHEM_IUPAC_SYSTEMATIC_NAME>
1-[2-[4-[(Z)-1,2-bis(4-chlorophenyl)but-1-enyl]phenoxy]ethyl]pyrrolidine

> <PUBCHEM_IUPAC_TRADITIONAL_NAME>
1-[2-[4-[(Z)-1,2-bis(4-chlorophenyl)but-1-enyl]phenoxy]ethyl]pyrrolidine

> <PUBCHEM_IUPAC_INCHI>
InChI=1S/C28H29Cl2NO/c1-2-27(21-5-11-24(29)12-6-21)28(22-7-13-25(30)14-8-22)23-9-15-26(16-10-23)32-20-19-31-17-3-4-18-31/h5-16H,2-4,17-20H2,1H3/b28-27+

> <PUBCHEM_IUPAC_INCHIKEY>
NOYGTJMPXHHLBO-BYYHNAKLSA-N

> <PUBCHEM_XLOGP3_AA>
8.9

> <PUBCHEM_EXACT_MASS>
465.1626199

> <PUBCHEM_MOLECULAR_FORMULA>
C28H29Cl2NO

> <PUBCHEM_MOLECULAR_WEIGHT>
466.4

> <PUBCHEM_OPENEYE_CAN_SMILES>
CCC(=C(C1=CC=C(C=C1)OCCN2CCCC2)C3=CC=C(C=C3)Cl)C4=CC=C(C=C4)Cl

> <PUBCHEM_OPENEYE_ISO_SMILES>
CC/C(=C(\C1=CC=C(C=C1)OCCN2CCCC2)/C3=CC=C(C=C3)Cl)/C4=CC=C(C=C4)Cl

> <PUBCHEM_CACTVS_TPSA>
12.5

> <PUBCHEM_MONOISOTOPIC_WEIGHT>
465.1626199

> <PUBCHEM_TOTAL_CHARGE>
0

> <PUBCHEM_HEAVY_ATOM_COUNT>
32

> <PUBCHEM_ATOM_DEF_STEREO_COUNT>
0

> <PUBCHEM_ATOM_UDEF_STEREO_COUNT>
0

> <PUBCHEM_BOND_DEF_STEREO_COUNT>
1

> <PUBCHEM_BOND_UDEF_STEREO_COUNT>
0

> <PUBCHEM_ISOTOPIC_ATOM_COUNT>
0

> <PUBCHEM_COMPONENT_COUNT>
1

> <PUBCHEM_CACTVS_TAUTO_COUNT>
-1

> <PUBCHEM_COORDINATE_TYPE>
1
5
255

> <PUBCHEM_BONDANNOTATIONS>
11  15  8
11  16  8
13  18  8
13  19  8
15  18  8
16  19  8
20  23  8
20  24  8
21  25  8
21  26  8
23  27  8
24  28  8
25  29  8
26  30  8
27  31  8
28  31  8
29  32  8
30  32  8

$$$$
