20227298
  -OEChem-08052412062D

 55 57  0     0  0  0  0  0  0999 V2000
    4.5981   -2.2500    0.0000 O   0  0  0  0  0  0  0  0  0  0  0  0
    8.0622    3.7500    0.0000 O   0  0  0  0  0  0  0  0  0  0  0  0
    2.8660   -4.2500    0.0000 N   0  0  0  0  0  0  0  0  0  0  0  0
    4.5981    1.7500    0.0000 C   0  0  0  0  0  0  0  0  0  0  0  0
    4.5981    0.7500    0.0000 C   0  0  0  0  0  0  0  0  0  0  0  0
    3.7320    2.2500    0.0000 C   0  0  0  0  0  0  0  0  0  0  0  0
    5.4641    2.2500    0.0000 C   0  0  0  0  0  0  0  0  0  0  0  0
    3.7320    3.2500    0.0000 C   0  0  0  0  0  0  0  0  0  0  0  0
    5.4641    0.2500    0.0000 C   0  0  0  0  0  0  0  0  0  0  0  0
    3.7320    0.2500    0.0000 C   0  0  0  0  0  0  0  0  0  0  0  0
    4.5981   -1.2500    0.0000 C   0  0  0  0  0  0  0  0  0  0  0  0
    3.7320   -3.7500    0.0000 C   0  0  0  0  0  0  0  0  0  0  0  0
    2.8660    1.7500    0.0000 C   0  0  0  0  0  0  0  0  0  0  0  0
    3.7320   -2.7500    0.0000 C   0  0  0  0  0  0  0  0  0  0  0  0
    5.4641   -0.7500    0.0000 C   0  0  0  0  0  0  0  0  0  0  0  0
    3.7320   -0.7500    0.0000 C   0  0  0  0  0  0  0  0  0  0  0  0
    6.3301    1.7500    0.0000 C   0  0  0  0  0  0  0  0  0  0  0  0
    5.4641    3.2500    0.0000 C   0  0  0  0  0  0  0  0  0  0  0  0
    2.8660    3.7500    0.0000 C   0  0  0  0  0  0  0  0  0  0  0  0
    4.5981    3.7500    0.0000 C   0  0  0  0  0  0  0  0  0  0  0  0
    7.1962    2.2500    0.0000 C   0  0  0  0  0  0  0  0  0  0  0  0
    6.3301    3.7500    0.0000 C   0  0  0  0  0  0  0  0  0  0  0  0
    7.1962    3.2500    0.0000 C   0  0  0  0  0  0  0  0  0  0  0  0
    2.8660   -5.2500    0.0000 C   0  0  0  0  0  0  0  0  0  0  0  0
    2.0000   -3.7500    0.0000 C   0  0  0  0  0  0  0  0  0  0  0  0
    2.8660    4.7500    0.0000 C   0  0  0  0  0  0  0  0  0  0  0  0
    4.5981    4.7500    0.0000 C   0  0  0  0  0  0  0  0  0  0  0  0
    3.7320    5.2500    0.0000 C   0  0  0  0  0  0  0  0  0  0  0  0
    6.0010    0.5600    0.0000 H   0  0  0  0  0  0  0  0  0  0  0  0
    3.1951    0.5600    0.0000 H   0  0  0  0  0  0  0  0  0  0  0  0
    3.9441   -4.3326    0.0000 H   0  0  0  0  0  0  0  0  0  0  0  0
    4.3426   -3.6423    0.0000 H   0  0  0  0  0  0  0  0  0  0  0  0
    3.5200   -2.1674    0.0000 H   0  0  0  0  0  0  0  0  0  0  0  0
    3.1215   -2.8577    0.0000 H   0  0  0  0  0  0  0  0  0  0  0  0
    2.5560    2.2869    0.0000 H   0  0  0  0  0  0  0  0  0  0  0  0
    2.3291    1.4400    0.0000 H   0  0  0  0  0  0  0  0  0  0  0  0
    3.1760    1.2131    0.0000 H   0  0  0  0  0  0  0  0  0  0  0  0
    6.0010   -1.0600    0.0000 H   0  0  0  0  0  0  0  0  0  0  0  0
    3.1951   -1.0600    0.0000 H   0  0  0  0  0  0  0  0  0  0  0  0
    6.3301    1.1300    0.0000 H   0  0  0  0  0  0  0  0  0  0  0  0
    4.9272    3.5600    0.0000 H   0  0  0  0  0  0  0  0  0  0  0  0
    2.3291    3.4400    0.0000 H   0  0  0  0  0  0  0  0  0  0  0  0
    5.1350    3.4400    0.0000 H   0  0  0  0  0  0  0  0  0  0  0  0
    7.7331    1.9400    0.0000 H   0  0  0  0  0  0  0  0  0  0  0  0
    6.3301    4.3700    0.0000 H   0  0  0  0  0  0  0  0  0  0  0  0
    2.2460   -5.2500    0.0000 H   0  0  0  0  0  0  0  0  0  0  0  0
    2.8660   -5.8700    0.0000 H   0  0  0  0  0  0  0  0  0  0  0  0
    3.4860   -5.2500    0.0000 H   0  0  0  0  0  0  0  0  0  0  0  0
    2.3100   -3.2131    0.0000 H   0  0  0  0  0  0  0  0  0  0  0  0
    1.4631   -3.4400    0.0000 H   0  0  0  0  0  0  0  0  0  0  0  0
    1.6900   -4.2869    0.0000 H   0  0  0  0  0  0  0  0  0  0  0  0
    2.3291    5.0600    0.0000 H   0  0  0  0  0  0  0  0  0  0  0  0
    5.1350    5.0600    0.0000 H   0  0  0  0  0  0  0  0  0  0  0  0
    3.7320    5.8700    0.0000 H   0  0  0  0  0  0  0  0  0  0  0  0
    8.5991    3.4400    0.0000 H   0  0  0  0  0  0  0  0  0  0  0  0
  1 11  1  0  0  0  0
  1 14  1  0  0  0  0
  2 23  1  0  0  0  0
  2 55  1  0  0  0  0
  3 12  1  0  0  0  0
  3 24  1  0  0  0  0
  3 25  1  0  0  0  0
  4  5  1  0  0  0  0
  4  6  2  0  0  0  0
  4  7  1  0  0  0  0
  5  9  2  0  0  0  0
  5 10  1  0  0  0  0
  6  8  1  0  0  0  0
  6 13  1  0  0  0  0
  7 17  2  0  0  0  0
  7 18  1  0  0  0  0
  8 19  2  0  0  0  0
  8 20  1  0  0  0  0
  9 15  1  0  0  0  0
  9 29  1  0  0  0  0
 10 16  2  0  0  0  0
 10 30  1  0  0  0  0
 11 15  2  0  0  0  0
 11 16  1  0  0  0  0
 12 14  1  0  0  0  0
 12 31  1  0  0  0  0
 12 32  1  0  0  0  0
 13 35  1  0  0  0  0
 13 36  1  0  0  0  0
 13 37  1  0  0  0  0
 14 33  1  0  0  0  0
 14 34  1  0  0  0  0
 15 38  1  0  0  0  0
 16 39  1  0  0  0  0
 17 21  1  0  0  0  0
 17 40  1  0  0  0  0
 18 22  2  0  0  0  0
 18 41  1  0  0  0  0
 19 26  1  0  0  0  0
 19 42  1  0  0  0  0
 20 27  2  0  0  0  0
 20 43  1  0  0  0  0
 21 23  2  0  0  0  0
 21 44  1  0  0  0  0
 22 23  1  0  0  0  0
 22 45  1  0  0  0  0
 24 46  1  0  0  0  0
 24 47  1  0  0  0  0
 24 48  1  0  0  0  0
 25 49  1  0  0  0  0
 25 50  1  0  0  0  0
 25 51  1  0  0  0  0
 26 28  2  0  0  0  0
 26 52  1  0  0  0  0
 27 28  1  0  0  0  0
 27 53  1  0  0  0  0
 28 54  1  0  0  0  0
M  END
> <PUBCHEM_COMPOUND_CID>
20227298

> <PUBCHEM_COMPOUND_CANONICALIZED>
1

> <PUBCHEM_CACTVS_COMPLEXITY>
479

> <PUBCHEM_CACTVS_HBOND_ACCEPTOR>
3

> <PUBCHEM_CACTVS_HBOND_DONOR>
1

> <PUBCHEM_CACTVS_ROTATABLE_BOND>
7

> <PUBCHEM_CACTVS_SUBSKEYS>
AAADceB6MAAAAAAAAAAAAAAAAAAAAAAAAAAwYMAAAAAAAAABUAAAHgAACAAADAThmAYyBoMABgCAAiBCAAACCAAgIAAIiAAOCIgOJiKGMRqDeCCkwBEYuAeAwOAOIAAAAAAAAABAAAAAAAAAAAAAAAAAAA==

> <PUBCHEM_IUPAC_OPENEYE_NAME>
4-[(E)-1-[4-[2-(dimethylamino)ethoxy]phenyl]-2-phenyl-prop-1-enyl]phenol

> <PUBCHEM_IUPAC_CAS_NAME>
4-[(E)-1-[4-[2-(dimethylamino)ethoxy]phenyl]-2-phenylprop-1-enyl]phenol

> <PUBCHEM_IUPAC_NAME_MARKUP>
4-[(<I>E</I>)-1-[4-[2-(dimethylamino)ethoxy]phenyl]-2-phenylprop-1-enyl]phenol

> <PUBCHEM_IUPAC_NAME>
4-[(E)-1-[4-[2-(dimethylamino)ethoxy]phenyl]-2-phenylprop-1-enyl]phenol

> <PUBCHEM_IUPAC_SYSTEMATIC_NAME>
4-[(E)-1-[4-[2-(dimethylamino)ethoxy]phenyl]-2-phenyl-prop-1-enyl]phenol

> <PUBCHEM_IUPAC_TRADITIONAL_NAME>
4-[(E)-1-[4-[2-(dimethylamino)ethoxy]phenyl]-2-phenyl-prop-1-enyl]phenol

> <PUBCHEM_IUPAC_INCHI>
InChI=1S/C25H27NO2/c1-19(20-7-5-4-6-8-20)25(21-9-13-23(27)14-10-21)22-11-15-24(16-12-22)28-18-17-26(2)3/h4-16,27H,17-18H2,1-3H3/b25-19+

> <PUBCHEM_IUPAC_INCHIKEY>
VQPMXTYBBIBWJS-NCELDCMTSA-N

> <PUBCHEM_XLOGP3_AA>
6.4

> <PUBCHEM_EXACT_MASS>
373.204179104

> <PUBCHEM_MOLECULAR_FORMULA>
C25H27NO2

> <PUBCHEM_MOLECULAR_WEIGHT>
373.5

> <PUBCHEM_OPENEYE_CAN_SMILES>
CC(=C(C1=CC=C(C=C1)O)C2=CC=C(C=C2)OCCN(C)C)C3=CC=CC=C3

> <PUBCHEM_OPENEYE_ISO_SMILES>
C/C(=C(/C1=CC=C(C=C1)O)\C2=CC=C(C=C2)OCCN(C)C)/C3=CC=CC=C3

> <PUBCHEM_CACTVS_TPSA>
32.7

> <PUBCHEM_MONOISOTOPIC_WEIGHT>
373.204179104

> <PUBCHEM_TOTAL_CHARGE>
0

> <PUBCHEM_HEAVY_ATOM_COUNT>
28

> <PUBCHEM_ATOM_DEF_STEREO_COUNT>
0

> <PUBCHEM_ATOM_UDEF_STEREO_COUNT>
0

> <PUBCHEM_BOND_DEF_STEREO_COUNT>
1

> <PUBCHEM_BOND_UDEF_STEREO_COUNT>
0

> <PUBCHEM_ISOTOPIC_ATOM_COUNT>
0

> <PUBCHEM_COMPONENT_COUNT>
1

> <PUBCHEM_CACTVS_TAUTO_COUNT>
-1

> <PUBCHEM_COORDINATE_TYPE>
1
5
255

> <PUBCHEM_BONDANNOTATIONS>
10  16  8
11  15  8
11  16  8
17  21  8
18  22  8
19  26  8
20  27  8
21  23  8
22  23  8
26  28  8
27  28  8
5  10  8
5  9  8
7  17  8
7  18  8
8  19  8
8  20  8
9  15  8

$$$$
