129651684
  -OEChem-08052412132D

 61 63  0     1  0  0  0  0  0999 V2000
    2.8660    2.2500    0.0000 O   0  0  0  0  0  0  0  0  0  0  0  0
    5.4641   -2.2500    0.0000 O   0  0  0  0  0  0  0  0  0  0  0  0
    3.7320   -4.2500    0.0000 N   0  0  0  0  0  0  0  0  0  0  0  0
    4.5981    2.2500    0.0000 C   0  0  0  0  0  0  0  0  0  0  0  0
    5.4641    1.7500    0.0000 C   0  0  0  0  0  0  0  0  0  0  0  0
    3.7320    1.7500    0.0000 C   0  0  3  0  0  0  0  0  0  0  0  0
    5.4641    0.7500    0.0000 C   0  0  0  0  0  0  0  0  0  0  0  0
    4.5981    3.2500    0.0000 C   0  0  0  0  0  0  0  0  0  0  0  0
    6.3301    2.2500    0.0000 C   0  0  0  0  0  0  0  0  0  0  0  0
    3.7320    0.7500    0.0000 C   0  0  0  0  0  0  0  0  0  0  0  0
    4.5981    0.2500    0.0000 C   0  0  0  0  0  0  0  0  0  0  0  0
    6.3301    0.2500    0.0000 C   0  0  0  0  0  0  0  0  0  0  0  0
    5.4641    3.7500    0.0000 C   0  0  0  0  0  0  0  0  0  0  0  0
    3.7320    3.7500    0.0000 C   0  0  0  0  0  0  0  0  0  0  0  0
    6.3301    3.2500    0.0000 C   0  0  0  0  0  0  0  0  0  0  0  0
    7.1962    1.7500    0.0000 C   0  0  0  0  0  0  0  0  0  0  0  0
    5.4641   -1.2500    0.0000 C   0  0  0  0  0  0  0  0  0  0  0  0
    4.5981   -0.7500    0.0000 C   0  0  0  0  0  0  0  0  0  0  0  0
    6.3301   -0.7500    0.0000 C   0  0  0  0  0  0  0  0  0  0  0  0
    4.5981   -2.7500    0.0000 C   0  0  0  0  0  0  0  0  0  0  0  0
    4.5981   -3.7500    0.0000 C   0  0  0  0  0  0  0  0  0  0  0  0
    5.4641    4.7500    0.0000 C   0  0  0  0  0  0  0  0  0  0  0  0
    3.7320    4.7500    0.0000 C   0  0  0  0  0  0  0  0  0  0  0  0
    7.1962    3.7500    0.0000 C   0  0  0  0  0  0  0  0  0  0  0  0
    8.0622    2.2500    0.0000 C   0  0  0  0  0  0  0  0  0  0  0  0
    4.5981    5.2500    0.0000 C   0  0  0  0  0  0  0  0  0  0  0  0
    2.0000    1.7500    0.0000 C   0  0  0  0  0  0  0  0  0  0  0  0
    8.0622    3.2500    0.0000 C   0  0  0  0  0  0  0  0  0  0  0  0
    3.7320   -5.2500    0.0000 C   0  0  0  0  0  0  0  0  0  0  0  0
    2.8660   -3.7500    0.0000 C   0  0  0  0  0  0  0  0  0  0  0  0
    3.7320    2.3700    0.0000 H   0  0  0  0  0  0  0  0  0  0  0  0
    3.1120    0.7500    0.0000 H   0  0  0  0  0  0  0  0  0  0  0  0
    3.7320    0.1300    0.0000 H   0  0  0  0  0  0  0  0  0  0  0  0
    4.3520    0.7500    0.0000 H   0  0  0  0  0  0  0  0  0  0  0  0
    4.0611    0.5600    0.0000 H   0  0  0  0  0  0  0  0  0  0  0  0
    6.8671    0.5600    0.0000 H   0  0  0  0  0  0  0  0  0  0  0  0
    6.0010    3.4400    0.0000 H   0  0  0  0  0  0  0  0  0  0  0  0
    3.1951    3.4400    0.0000 H   0  0  0  0  0  0  0  0  0  0  0  0
    5.7932    3.5600    0.0000 H   0  0  0  0  0  0  0  0  0  0  0  0
    7.1962    1.1300    0.0000 H   0  0  0  0  0  0  0  0  0  0  0  0
    4.0611   -1.0600    0.0000 H   0  0  0  0  0  0  0  0  0  0  0  0
    6.8671   -1.0600    0.0000 H   0  0  0  0  0  0  0  0  0  0  0  0
    4.3860   -2.1674    0.0000 H   0  0  0  0  0  0  0  0  0  0  0  0
    3.9875   -2.8577    0.0000 H   0  0  0  0  0  0  0  0  0  0  0  0
    4.8101   -4.3326    0.0000 H   0  0  0  0  0  0  0  0  0  0  0  0
    5.2087   -3.6423    0.0000 H   0  0  0  0  0  0  0  0  0  0  0  0
    6.0010    5.0600    0.0000 H   0  0  0  0  0  0  0  0  0  0  0  0
    3.1951    5.0600    0.0000 H   0  0  0  0  0  0  0  0  0  0  0  0
    7.1962    4.3700    0.0000 H   0  0  0  0  0  0  0  0  0  0  0  0
    8.5991    1.9400    0.0000 H   0  0  0  0  0  0  0  0  0  0  0  0
    4.5981    5.8700    0.0000 H   0  0  0  0  0  0  0  0  0  0  0  0
    1.6900    2.2869    0.0000 H   0  0  0  0  0  0  0  0  0  0  0  0
    1.4631    1.4400    0.0000 H   0  0  0  0  0  0  0  0  0  0  0  0
    2.3100    1.2131    0.0000 H   0  0  0  0  0  0  0  0  0  0  0  0
    8.5991    3.5600    0.0000 H   0  0  0  0  0  0  0  0  0  0  0  0
    3.1120   -5.2500    0.0000 H   0  0  0  0  0  0  0  0  0  0  0  0
    3.7320   -5.8700    0.0000 H   0  0  0  0  0  0  0  0  0  0  0  0
    4.3520   -5.2500    0.0000 H   0  0  0  0  0  0  0  0  0  0  0  0
    3.1760   -3.2131    0.0000 H   0  0  0  0  0  0  0  0  0  0  0  0
    2.3291   -3.4400    0.0000 H   0  0  0  0  0  0  0  0  0  0  0  0
    2.5560   -4.2869    0.0000 H   0  0  0  0  0  0  0  0  0  0  0  0
  1  6  1  0  0  0  0
  1 27  1  0  0  0  0
  2 17  1  0  0  0  0
  2 20  1  0  0  0  0
  3 21  1  0  0  0  0
  3 29  1  0  0  0  0
  3 30  1  0  0  0  0
  4  5  2  0  0  0  0
  4  6  1  0  0  0  0
  4  8  1  0  0  0  0
  5  7  1  0  0  0  0
  5  9  1  0  0  0  0
  6 10  1  0  0  0  0
  6 31  1  0  0  0  0
  7 11  2  0  0  0  0
  7 12  1  0  0  0  0
  8 13  2  0  0  0  0
  8 14  1  0  0  0  0
  9 15  2  0  0  0  0
  9 16  1  0  0  0  0
 10 32  1  0  0  0  0
 10 33  1  0  0  0  0
 10 34  1  0  0  0  0
 11 18  1  0  0  0  0
 11 35  1  0  0  0  0
 12 19  2  0  0  0  0
 12 36  1  0  0  0  0
 13 22  1  0  0  0  0
 13 37  1  0  0  0  0
 14 23  2  0  0  0  0
 14 38  1  0  0  0  0
 15 24  1  0  0  0  0
 15 39  1  0  0  0  0
 16 25  2  0  0  0  0
 16 40  1  0  0  0  0
 17 18  2  0  0  0  0
 17 19  1  0  0  0  0
 18 41  1  0  0  0  0
 19 42  1  0  0  0  0
 20 21  1  0  0  0  0
 20 43  1  0  0  0  0
 20 44  1  0  0  0  0
 21 45  1  0  0  0  0
 21 46  1  0  0  0  0
 22 26  2  0  0  0  0
 22 47  1  0  0  0  0
 23 26  1  0  0  0  0
 23 48  1  0  0  0  0
 24 28  2  0  0  0  0
 24 49  1  0  0  0  0
 25 28  1  0  0  0  0
 25 50  1  0  0  0  0
 26 51  1  0  0  0  0
 27 52  1  0  0  0  0
 27 53  1  0  0  0  0
 27 54  1  0  0  0  0
 28 55  1  0  0  0  0
 29 56  1  0  0  0  0
 29 57  1  0  0  0  0
 29 58  1  0  0  0  0
 30 59  1  0  0  0  0
 30 60  1  0  0  0  0
 30 61  1  0  0  0  0
M  END
> <PUBCHEM_COMPOUND_CID>
129651684

> <PUBCHEM_COMPOUND_CANONICALIZED>
1

> <PUBCHEM_CACTVS_COMPLEXITY>
509

> <PUBCHEM_CACTVS_HBOND_ACCEPTOR>
3

> <PUBCHEM_CACTVS_HBOND_DONOR>
0

> <PUBCHEM_CACTVS_ROTATABLE_BOND>
9

> <PUBCHEM_CACTVS_SUBSKEYS>
AAADceB6MAAAAAAAAAAAAAAAAAAAAAAAAAAwYMAAAAAAAAABUAAAHgAAAAAADBThmAYyBoMABACAAiBCAAACCAAgIAAIiAAOCIgOJiKEMRqDOCCkwBEYqAeAwOAOIAAAAAAAAABAAAAAAAAAAAAAAAAAAA==

> <PUBCHEM_IUPAC_OPENEYE_NAME>
2-[4-[(Z)-3-methoxy-1,2-diphenyl-but-1-enyl]phenoxy]-N,N-dimethyl-ethanamine

> <PUBCHEM_IUPAC_CAS_NAME>
2-[4-[(Z)-3-methoxy-1,2-diphenylbut-1-enyl]phenoxy]-N,N-dimethylethanamine

> <PUBCHEM_IUPAC_NAME_MARKUP>
2-[4-[(<I>Z</I>)-3-methoxy-1,2-diphenylbut-1-enyl]phenoxy]-<I>N</I>,<I>N</I>-dimethylethanamine

> <PUBCHEM_IUPAC_NAME>
2-[4-[(Z)-3-methoxy-1,2-diphenylbut-1-enyl]phenoxy]-N,N-dimethylethanamine

> <PUBCHEM_IUPAC_SYSTEMATIC_NAME>
2-[4-[(Z)-3-methoxy-1,2-diphenyl-but-1-enyl]phenoxy]-N,N-dimethyl-ethanamine

> <PUBCHEM_IUPAC_TRADITIONAL_NAME>
2-[4-[(Z)-3-methoxy-1,2-diphenyl-but-1-enyl]phenoxy]ethyl-dimethyl-amine

> <PUBCHEM_IUPAC_INCHI>
InChI=1S/C27H31NO2/c1-21(29-4)26(22-11-7-5-8-12-22)27(23-13-9-6-10-14-23)24-15-17-25(18-16-24)30-20-19-28(2)3/h5-18,21H,19-20H2,1-4H3/b27-26+

> <PUBCHEM_IUPAC_INCHIKEY>
VOYKZTKZEWKVFN-CYYJNZCTSA-N

> <PUBCHEM_XLOGP3_AA>
6.4

> <PUBCHEM_EXACT_MASS>
401.235479232

> <PUBCHEM_MOLECULAR_FORMULA>
C27H31NO2

> <PUBCHEM_MOLECULAR_WEIGHT>
401.5

> <PUBCHEM_OPENEYE_CAN_SMILES>
CC(C(=C(C1=CC=CC=C1)C2=CC=C(C=C2)OCCN(C)C)C3=CC=CC=C3)OC

> <PUBCHEM_OPENEYE_ISO_SMILES>
CC(/C(=C(/C1=CC=CC=C1)\C2=CC=C(C=C2)OCCN(C)C)/C3=CC=CC=C3)OC

> <PUBCHEM_CACTVS_TPSA>
21.7

> <PUBCHEM_MONOISOTOPIC_WEIGHT>
401.235479232

> <PUBCHEM_TOTAL_CHARGE>
0

> <PUBCHEM_HEAVY_ATOM_COUNT>
30

> <PUBCHEM_ATOM_DEF_STEREO_COUNT>
0

> <PUBCHEM_ATOM_UDEF_STEREO_COUNT>
1

> <PUBCHEM_BOND_DEF_STEREO_COUNT>
1

> <PUBCHEM_BOND_UDEF_STEREO_COUNT>
0

> <PUBCHEM_ISOTOPIC_ATOM_COUNT>
0

> <PUBCHEM_COMPONENT_COUNT>
1

> <PUBCHEM_CACTVS_TAUTO_COUNT>
-1

> <PUBCHEM_COORDINATE_TYPE>
1
5
255

> <PUBCHEM_BONDANNOTATIONS>
11  18  8
12  19  8
13  22  8
14  23  8
15  24  8
16  25  8
17  18  8
17  19  8
22  26  8
23  26  8
24  28  8
25  28  8
6  10  3
7  11  8
7  12  8
8  13  8
8  14  8
9  15  8
9  16  8

$$$$
